5
Properties=species:S:1:pos:R:3 energy=-39.980966533717975 pbc="F F F"
C        0.00000000       0.00000000       0.00000000
H        1.19577180       0.69582632      -1.53777680
H       -0.07590599       1.04620262       1.95058034
H       -1.10813614       1.91728119       1.81155538
H        1.39764218      -0.98903322      -0.05350022
5
Properties=species:S:1:pos:R:3 energy=-39.980966533717975 pbc="F F F"
C       -0.01254299       0.18590055      -0.12432072
H        1.28345907       0.64403789      -1.51682694
H       -0.07460753       0.98912941       1.98562909
H       -1.07876067       1.98766871       1.82674976
H        1.39579163      -0.80321884       0.00671126
